$DATA1 SOURCE='HSPICE' VERSION='A-2008.03 32-BIT'
.TITLE '* 2-to-1 decoder - pseudo-nmos logic *'
 tphl             tplh             tpd              avgpower          
 pdp              temper           alter#            
 -7.536e-13        1.344e-10        6.684e-11        6.296e-05        
  4.208e-15         25.0000           1.0000         
