$DATA1 SOURCE='HSPICE' VERSION='A-2008.03 32-BIT'
.TITLE '* 2-to-1 decoder - pseudo-nmos logic *'
 tphl             tplh             tpd              avgpower          
 pdp              temper           alter#            
  1.611e-11       -3.100e-11       -7.443e-12        6.524e-05        
 -4.856e-16         25.0000           1.0000         
