$DATA1 SOURCE='HSPICE' VERSION='A-2008.03 32-BIT'
.TITLE '* 2-to-1 decoder - pseudo-nmos logic'
 tphl             tplh             tpd              avgpower          
 pdp              temper           alter#            
  9.248e-12        9.213e-11        5.069e-11        6.520e-05        
  3.305e-15         25.0000           1.0000         
